*SPEF "IEEE 1481-1999"
*DESIGN "RAM128"
*DATE "Sun Dec 14 14:30:32 2025"
*VENDOR "SYNOPSYS INC"
*PROGRAM "Synopsys Design Compiler"
*VERSION "T-2022.03-SP5"
*DESIGN_FLOW "SYNTHESIS"
*DIVIDER /
*DELIMITER :
*BUS_DELIMITER []
*T_UNIT 1.0 NS
*C_UNIT 1.0 PF
*R_UNIT 1.0 KOHM
*L_UNIT 1.0 HENRY

*PORTS

